Version 4
SHEET 1 880 680
WIRE 384 144 304 144
WIRE 560 144 464 144
WIRE 304 224 304 144
WIRE 560 240 560 144
WIRE 304 352 304 304
WIRE 416 352 304 352
WIRE 560 352 560 304
WIRE 560 352 416 352
WIRE 416 384 416 352
FLAG 416 384 0
SYMBOL voltage 304 208 R0
SYMATTR InstName V1
SYMATTR Value 20
SYMBOL res 480 128 R90
WINDOW 0 0 56 VBottom 2
WINDOW 3 32 56 VTop 2
SYMATTR InstName R1
SYMATTR Value 1K
SYMBOL advee_components/1N4001 544 240 R0
SYMATTR InstName U1
TEXT 640 112 Left 2 !.op
TEXT 640 144 Left 2 !.dc v1 0 10 0.001
