Version 4
SHEET 1 936 680
WIRE 768 160 144 160
WIRE 272 192 240 192
WIRE 464 192 272 192
WIRE 496 192 464 192
WIRE 688 192 496 192
WIRE 720 192 688 192
WIRE 848 192 720 192
WIRE 240 240 240 192
WIRE 464 240 464 192
WIRE 688 240 688 192
WIRE 272 288 272 192
WIRE 272 288 240 288
WIRE 496 288 496 192
WIRE 496 288 464 288
WIRE 720 288 720 192
WIRE 720 288 688 288
WIRE 848 304 848 192
WIRE 192 320 160 320
WIRE 416 320 384 320
WIRE 640 320 608 320
WIRE 144 352 144 160
WIRE 160 352 160 320
WIRE 160 352 144 352
WIRE 240 352 240 336
WIRE 336 352 240 352
WIRE 384 352 384 320
WIRE 384 352 336 352
WIRE 464 352 464 336
WIRE 560 352 464 352
WIRE 608 352 608 320
WIRE 608 352 560 352
WIRE 688 352 688 336
WIRE 768 352 768 160
WIRE 768 352 688 352
WIRE 240 368 240 352
WIRE 336 368 336 352
WIRE 464 368 464 352
WIRE 560 368 560 352
WIRE 688 368 688 352
WIRE 768 368 768 352
WIRE 304 416 240 416
WIRE 528 416 464 416
WIRE 752 416 688 416
WIRE 160 448 160 352
WIRE 192 448 160 448
WIRE 384 448 384 352
WIRE 416 448 384 448
WIRE 608 448 608 352
WIRE 640 448 608 448
WIRE 240 480 240 464
WIRE 304 480 304 416
WIRE 304 480 240 480
WIRE 336 480 336 432
WIRE 336 480 304 480
WIRE 464 480 464 464
WIRE 464 480 336 480
WIRE 528 480 528 416
WIRE 528 480 464 480
WIRE 560 480 560 432
WIRE 560 480 528 480
WIRE 688 480 688 464
WIRE 688 480 560 480
WIRE 752 480 752 416
WIRE 752 480 688 480
WIRE 768 480 768 432
WIRE 768 480 752 480
WIRE 848 480 848 384
WIRE 848 480 768 480
WIRE 848 528 848 480
FLAG 848 528 0
FLAG 160 352 Vs
SYMBOL voltage 848 288 R0
SYMATTR InstName V_DD
SYMATTR Value 5
SYMBOL advee_components/MbreakN 640 368 R0
SYMATTR InstName U1
SYMBOL advee_components/MbreakN 416 368 R0
SYMATTR InstName U2
SYMBOL advee_components/MbreakN 192 368 R0
SYMATTR InstName U3
SYMBOL advee_components/MbreakP 640 240 R0
SYMATTR InstName U4
SYMBOL advee_components/MbreakP 416 240 R0
SYMATTR InstName U5
SYMBOL advee_components/MbreakP 192 240 R0
SYMATTR InstName U6
SYMBOL Cap 320 368 R0
SYMATTR InstName C1
SYMATTR Value 50p
SYMBOL Cap 544 368 R0
SYMATTR InstName C2
SYMATTR Value 50p
SYMBOL Cap 752 368 R0
SYMATTR InstName C3
SYMATTR Value 50p
TEXT 144 80 Left 2 !.tran 2u
TEXT 144 112 Left 2 !.ic V(Vs) = 1
