Version 4
SHEET 1 1380 1212
WIRE -32 80 0 80
WIRE 0 80 0 176
WIRE 0 176 -32 176
WIRE -112 80 -176 80
WIRE -176 80 -176 176
WIRE -176 176 -144 176
WIRE -176 208 -176 176
WIRE -176 272 -176 304
WIRE 0 176 32 176
WIRE 480 -176 480 -192
WIRE 480 -272 480 -288
WIRE 480 -288 560 -288
WIRE -32 -160 0 -160
WIRE -144 -160 -208 -160
WIRE -208 -160 -208 -144
WIRE -208 -48 -208 -64
WIRE 576 128 640 128
WIRE 576 160 640 160
WIRE 576 192 640 192
WIRE 576 224 640 224
WIRE 784 128 816 128
WIRE 784 160 816 160
WIRE 784 192 816 192
WIRE 784 224 816 224
WIRE 640 128 704 128
WIRE 640 160 704 160
WIRE 640 192 704 192
WIRE 640 224 656 224
WIRE 656 224 656 464
WIRE 656 464 384 464
WIRE 384 464 384 768
WIRE 384 768 608 768
WIRE 608 736 592 736
WIRE 432 656 432 672
WIRE 432 672 496 672
WIRE 608 624 496 624
WIRE 496 624 496 672
WIRE 496 672 512 672
WIRE 576 672 608 672
WIRE 432 576 432 560
WIRE 608 848 592 848
WIRE 832 720 864 720
WIRE 640 96 704 96
WIRE 784 96 816 96
WIRE 208 0 176 0
WIRE 144 0 144 -32
WIRE 144 0 144 16
WIRE 144 80 144 96
WIRE 320 0 352 0
WIRE 144 -112 144 -128
WIRE 144 -128 192 -128
WIRE 176 0 144 0
WIRE 672 -176 672 -192
WIRE 672 -272 672 -288
WIRE 672 -288 752 -288
WIRE 0 752 0 800
WIRE 0 800 48 800
WIRE -64 704 -80 704
WIRE -80 704 -80 736
WIRE -240 704 -256 704
WIRE -256 704 -256 736
WIRE -176 752 -176 832
WIRE -176 832 48 832
WIRE 0 864 0 800
WIRE -176 864 -176 832
WIRE -176 944 -176 976
WIRE -176 976 0 976
WIRE 0 976 0 944
WIRE -176 976 -208 976
WIRE -176 656 -176 624
WIRE 0 656 0 624
WIRE -176 544 -176 512
WIRE 0 544 0 512
WIRE 160 816 208 816
WIRE 208 864 208 816
WIRE 208 944 208 976
WIRE 208 976 0 976
WIRE 208 816 240 816
WIRE 32 176 304 176
WIRE -32 -256 0 -256
WIRE -144 -256 -208 -256
WIRE -208 -256 -208 -160
WIRE 656 224 704 224
WIRE 352 64 304 64
WIRE 304 64 304 176
WIRE 832 784 864 784
WIRE 576 256 608 256
WIRE 576 288 608 288
WIRE 576 320 608 320
FLAG -176 304 0
FLAG 480 -176 0
FLAG 560 -288 VDD
FLAG 0 -160 out_14
FLAG -208 -48 0
FLAG -208 -160 in
FLAG 816 128 q0_
FLAG 816 160 q1_
FLAG 816 192 q2_
FLAG 816 224 q3_
FLAG 640 128 q0
FLAG 640 160 q1
FLAG 640 192 q2
FLAG 640 224 q3
FLAG 592 736 0
FLAG 432 560 VDD
FLAG 592 848 VDD
FLAG 864 720 q123
FLAG 640 96 q123
FLAG 816 96 q123_
FLAG 144 96 0
FLAG 192 -128 VDD
FLAG 176 0 res
FLAG 672 -176 0
FLAG 752 -288 VEE
FLAG -80 736 0
FLAG -256 736 0
FLAG -208 976 VEE
FLAG -176 512 q0
FLAG 0 512 q1
FLAG 240 816 q01_vee
FLAG 32 176 osc
FLAG 0 -256 out_0
SYMBOL res -128 96 R270
WINDOW 0 32 56 VTop 0
WINDOW 3 0 56 VBottom 0
SYMATTR InstName R1
SYMATTR Value 21k
SYMBOL cap -192 208 R0
SYMATTR InstName C1
SYMATTR Value 220p
SYMBOL voltage 480 -288 R0
SYMATTR InstName V1
SYMATTR Value {VDD}
SYMBOL voltage -208 -160 R0
WINDOW 123 0 0 Left 0
WINDOW 39 0 0 Left 0
SYMATTR InstName V2
SYMATTR Value PULSE(0 {VDD} 0 5u 5u 0 10u)
SYMBOL Digital\\dview5 720 240 R0
SYMATTR InstName U4
SYMATTR SpiceLine OFFSET={VDD+1}  GAIN=0.5/{VDD}
SYMBOL res 416 560 R0
SYMATTR InstName R3
SYMATTR Value 20k
SYMBOL cap 512 688 R270
WINDOW 0 32 32 VTop 0
WINDOW 3 0 32 VBottom 0
SYMATTR InstName C2
SYMATTR Value 1n
SYMBOL res 128 -128 R0
SYMATTR InstName R4
SYMATTR Value 10k
SYMBOL cap 128 16 R0
SYMATTR InstName Cres
SYMATTR Value 500p
SYMBOL voltage 672 -288 R0
SYMATTR InstName V4
SYMATTR Value -5.2V
SYMBOL pnp -64 752 M180
SYMATTR InstName Q2
SYMBOL pnp -240 752 M180
SYMATTR InstName Q1
SYMBOL res -192 528 R0
SYMATTR InstName R5
SYMATTR Value 10k
SYMBOL res -16 528 R0
SYMATTR InstName R6
SYMATTR Value 10k
SYMBOL res -192 848 R0
SYMATTR InstName R7
SYMATTR Value 10k
SYMBOL res -16 848 R0
SYMATTR InstName R8
SYMATTR Value 10k
SYMBOL res 192 848 R0
SYMATTR InstName R9
SYMATTR Value 2k
SYMBOL Digital\\CD4000\\CD4024B 464 -64 R0
SYMATTR InstName U3
SYMATTR SpiceLine VDD={VDD}  SPEED=1.0  TRIPDT=5e-9
SYMBOL Digital\\CD4000\\CD40106B -96 128 R0
SYMATTR InstName U1
SYMATTR SpiceLine VDD={VDD}  SPEED=1.0  TRIPDT=5e-9
SYMBOL Digital\\CD4000\\CD40106B -96 -208 R0
SYMATTR InstName U2
SYMATTR SpiceLine VDD={VDD}  SPEED=1.0  TRIPDT=5e-9
SYMBOL Digital\\CD4000\\CD4049B -96 -320 R0
SYMATTR InstName U8
SYMATTR SpiceLine VDD={VDD}  SPEED=1.0  TRIPDT=5e-9
SYMBOL Digital\\CD4000\\CD40106B 256 -48 R0
SYMATTR InstName U6
SYMATTR SpiceLine VDD={VDD}  SPEED=1.0  TRIPDT=5e-9
SYMBOL Digital\\CD4000\\CD4011B 96 752 R0
SYMATTR InstName U7
SYMATTR SpiceLine VDD=5.2  SPEED=1.0  TRIPDT=5e-9
SYMATTR SpiceModel 0 VEE
SYMBOL Digital\\CD4000\\CD14538B 720 560 R0
SYMATTR InstName U5
SYMATTR SpiceLine VDD={VDD}  SPEED=1.0  TRIPDT=1e-9
TEXT -216 -624 Left 0 !.include cd4000.lib
TEXT -216 -504 Left 0 !.tran 0 100u 5n
TEXT -216 -592 Left 0 !.include dview.lib
TEXT -216 -424 Left 0 !.IC V(res)=0
TEXT -216 -648 Left 0 ;Libraries
TEXT -216 -528 Left 0 ;Simulation
TEXT -216 -448 Left 0 ;Initialization
TEXT 64 728 Left 0 ;Gate supplied with 0,-5.2V
TEXT 392 -88 Left 0 ;Counter supplied with +5V and 0(GND)
TEXT 80 -672 Left 0 ;Right click with the mouse on the symbol to see the properties.\n \n   SpiceModel   VDD 0                    \n   SpecLine       VDD=5  SPEED=1 TRIPDT=5e-9     \n \nVDD 0      +supply net is VDD, - supply net is 0(GND)\nVDD=5 is the value of supply voltage\nSPEED=1   delay multiplier\nTRIPDTV=5e-9   internal timestep for A elements
TEXT -192 440 Left 0 ;74HC00 supplied with -5.2V
TEXT -216 -328 Left 0 ;Show threshhold voltage
TEXT -216 -384 Left 0 !.param VDD=15
TEXT -32 -384 Left 0 ;----> Take a look how the voltage VDD and its value is passed to all subcircuits.
