Version 4
SHEET 1 1008 680
WIRE 320 80 272 80
WIRE 832 80 320 80
WIRE 272 144 272 80
WIRE 224 160 160 160
WIRE 320 192 320 80
WIRE 320 192 272 192
WIRE 304 240 272 240
WIRE 160 272 160 160
WIRE 160 272 96 272
WIRE 304 272 304 240
WIRE 336 272 304 272
WIRE 832 272 832 80
WIRE 96 304 96 272
WIRE 304 320 304 272
WIRE 304 320 272 320
WIRE 320 368 272 368
WIRE 160 400 160 272
WIRE 224 400 160 400
WIRE 96 432 96 384
WIRE 272 448 272 416
WIRE 320 448 320 368
WIRE 320 448 272 448
WIRE 832 448 832 352
WIRE 832 448 320 448
WIRE 272 464 272 448
FLAG 336 272 Vout
FLAG 272 464 0
FLAG 96 432 0
SYMBOL voltage 832 256 R0
SYMATTR InstName V_DD
SYMATTR Value 5
SYMBOL advee_components/MbreakN 224 320 R0
SYMATTR InstName U1
SYMBOL advee_components/MbreakP 224 240 M180
SYMATTR InstName U2
SYMBOL Voltage 96 288 R0
SYMATTR InstName Vin
TEXT 816 472 Left 2 !.dc Vin 0 5 0.001
