Version 4
SHEET 1 1000 680
WIRE 288 0 192 0
WIRE 912 0 288 0
WIRE 192 176 192 0
WIRE 288 224 288 0
WIRE 288 224 192 224
WIRE 144 256 80 256
WIRE 912 256 912 0
WIRE 80 336 80 256
WIRE 80 336 -32 336
WIRE 192 336 192 272
WIRE 320 336 192 336
WIRE 192 400 192 336
WIRE -32 432 -32 336
WIRE 480 448 192 448
WIRE 320 464 320 336
WIRE 80 480 80 336
WIRE 144 480 80 480
WIRE -32 560 -32 512
WIRE 192 592 192 496
WIRE 256 592 192 592
WIRE 320 592 320 528
WIRE 320 592 256 592
WIRE 480 592 480 448
WIRE 480 592 320 592
WIRE 912 592 912 336
WIRE 912 592 480 592
WIRE 256 608 256 592
FLAG 256 608 0
FLAG -32 560 0
FLAG 320 336 Vout
SYMBOL voltage 912 240 R0
SYMATTR InstName V_DD
SYMATTR Value 5
SYMBOL advee_components/MbreakN 144 400 R0
SYMATTR InstName U1
SYMBOL advee_components/MbreakP 144 176 R0
SYMATTR InstName U2
SYMBOL Cap 304 464 R0
SYMATTR InstName C_L
SYMATTR Value {C}
SYMBOL Voltage -32 416 R0
SYMATTR InstName Vin
SYMATTR Value PULSE(0 5 0 20n 20n 500u 1m 1)
TEXT 184 -184 Left 2 !.tran 0 4m 0 1n
TEXT 184 -152 Left 2 ;.dc Vin 0 5 0.001
TEXT 192 -120 Left 2 !.step param C list 25pF 50pF 75pF 100pF
